MODEL 1
REMARK VINA RESULT:      -7.3      0.000      0.000
REMARK  6 active torsions:
REMARK  status: ('A' for Active; 'I' for Inactive)
REMARK    1  A    between atoms: C_1  and  S_13 
REMARK    2  A    between atoms: C_2  and  N_21 
REMARK    3  A    between atoms: C_2  and  C_3 
REMARK    4  A    between atoms: N_12  and  S_13 
REMARK    5  A    between atoms: C_16  and  S_18 
REMARK    6  A    between atoms: S_18  and  N_21 
ROOT
HETATM    1  S   LIG     1    -126.351 -39.779  34.522  1.00  0.00     0.265 S 
HETATM    2  O   LIG     1    -125.709 -38.596  34.989  1.00  0.00    -0.200 OA
HETATM    3  O   LIG     1    -127.332 -40.043  35.524  1.00  0.00    -0.200 OA
ENDROOT
BRANCH   1   4
HETATM    4  C   LIG     1    -127.232 -39.415  33.075  1.00  0.00     0.121 A 
HETATM    5  C   LIG     1    -128.468 -39.872  32.652  1.00  0.00     0.035 A 
HETATM    6  C   LIG     1    -128.850 -39.282  31.466  1.00  0.00     0.034 A 
HETATM    7  C   LIG     1    -127.889 -38.395  31.025  1.00  0.00     0.116 A 
HETATM    8  S   LIG     1    -126.494 -38.268  32.046  1.00  0.00    -0.064 SA
BRANCH   7   9
HETATM    9  S   LIG     1    -128.091 -37.427  29.601  1.00  0.00     0.245 S 
HETATM   10  O   LIG     1    -129.234 -38.007  28.950  1.00  0.00    -0.206 OA
HETATM   11  O   LIG     1    -126.932 -37.569  28.795  1.00  0.00    -0.206 OA
BRANCH   9  12
HETATM   12  N   LIG     1    -128.311 -35.964  30.148  1.00  0.00    -0.225 NA
HETATM   13  H   LIG     1    -128.227 -35.246  29.318  1.00  0.00     0.136 HD
HETATM   14  H   LIG     1    -127.547 -35.738  30.906  1.00  0.00     0.136 HD
ENDBRANCH   9  12
ENDBRANCH   7   9
ENDBRANCH   1   4
BRANCH   1  15
HETATM   15  N   LIG     1    -125.426 -40.927  34.316  1.00  0.00    -0.311 N 
HETATM   16  H   LIG     1    -125.734 -41.972  34.160  1.00  0.00     0.172 HD
BRANCH  15  17
HETATM   17  C   LIG     1    -124.037 -40.531  34.089  1.00  0.00     0.170 C 
BRANCH  17  18
HETATM   18  C   LIG     1    -123.534 -40.906  32.711  1.00  0.00    -0.040 A 
HETATM   19  C   LIG     1    -123.696 -42.202  32.193  1.00  0.00     0.009 A 
HETATM   20  C   LIG     1    -123.220 -42.503  30.916  1.00  0.00     0.007 A 
HETATM   21  C   LIG     1    -122.577 -41.515  30.153  1.00  0.00    -0.062 A 
HETATM   22  C   LIG     1    -122.018 -41.820  28.746  1.00  0.00     0.048 C 
HETATM   23  C   LIG     1    -122.419 -40.233  30.673  1.00  0.00     0.007 A 
HETATM   24  C   LIG     1    -122.896 -39.932  31.945  1.00  0.00     0.009 A 
ENDBRANCH  17  18
ENDBRANCH  15  17
ENDBRANCH   1  15
TORSDOF 6
ENDMDL
