REMARK VINA RESULT:      -6.4      4.004      5.351
REMARK  6 active torsions:
REMARK  status: ('A' for Active; 'I' for Inactive)
REMARK    1  A    between atoms: C_1  and  S_13 
REMARK    2  A    between atoms: C_2  and  N_21 
REMARK    3  A    between atoms: C_2  and  C_3 
REMARK    4  A    between atoms: N_12  and  S_13 
REMARK    5  A    between atoms: C_16  and  S_18 
REMARK    6  A    between atoms: S_18  and  N_21 
ROOT
HETATM    1  S   LIG     1    -126.382 -39.541  32.725  1.00  0.00     0.265 S 
HETATM    2  O   LIG     1    -126.324 -38.174  33.125  1.00  0.00    -0.200 OA
HETATM    3  O   LIG     1    -127.455 -39.567  31.785  1.00  0.00    -0.200 OA
ENDROOT
BRANCH   1   4
HETATM    4  C   LIG     1    -124.952 -39.933  31.830  1.00  0.00     0.121 A 
HETATM    5  C   LIG     1    -123.621 -39.819  32.193  1.00  0.00     0.035 A 
HETATM    6  C   LIG     1    -122.783 -40.309  31.215  1.00  0.00     0.034 A 
HETATM    7  C   LIG     1    -123.506 -40.779  30.137  1.00  0.00     0.116 A 
HETATM    8  S   LIG     1    -125.225 -40.626  30.293  1.00  0.00    -0.064 SA
BRANCH   7   9
HETATM    9  S   LIG     1    -122.759 -41.533  28.765  1.00  0.00     0.245 S 
HETATM   10  O   LIG     1    -123.561 -42.705  28.539  1.00  0.00    -0.206 OA
HETATM   11  O   LIG     1    -121.435 -41.897  29.121  1.00  0.00    -0.206 OA
BRANCH   9  12
HETATM   12  N   LIG     1    -122.837 -40.445  27.626  1.00  0.00    -0.225 NA
HETATM   13  H   LIG     1    -122.663 -39.449  28.059  1.00  0.00     0.136 HD
HETATM   14  H   LIG     1    -123.833 -40.473  27.161  1.00  0.00     0.136 HD
ENDBRANCH   9  12
ENDBRANCH   7   9
ENDBRANCH   1   4
BRANCH   1  15
HETATM   15  N   LIG     1    -126.591 -40.491  33.852  1.00  0.00    -0.311 N 
HETATM   16  H   LIG     1    -126.738 -40.207  34.905  1.00  0.00     0.172 HD
BRANCH  15  17
HETATM   17  C   LIG     1    -126.832 -41.869  33.425  1.00  0.00     0.170 C 
BRANCH  17  18
HETATM   18  C   LIG     1    -126.016 -42.879  34.203  1.00  0.00    -0.040 A 
HETATM   19  C   LIG     1    -124.611 -42.866  34.183  1.00  0.00     0.009 A 
HETATM   20  C   LIG     1    -123.898 -43.815  34.919  1.00  0.00     0.007 A 
HETATM   21  C   LIG     1    -124.583 -44.781  35.673  1.00  0.00    -0.062 A 
HETATM   22  C   LIG     1    -123.826 -45.859  36.478  1.00  0.00     0.048 C 
HETATM   23  C   LIG     1    -125.975 -44.789  35.687  1.00  0.00     0.007 A 
HETATM   24  C   LIG     1    -126.686 -43.841  34.956  1.00  0.00     0.009 A 
ENDBRANCH  17  18
ENDBRANCH  15  17
ENDBRANCH   1  15
TORSDOF 6
