REMARK VINA RESULT:      -6.2      2.600      4.845
REMARK  6 active torsions:
REMARK  status: ('A' for Active; 'I' for Inactive)
REMARK    1  A    between atoms: C_1  and  S_13 
REMARK    2  A    between atoms: C_2  and  N_21 
REMARK    3  A    between atoms: C_2  and  C_3 
REMARK    4  A    between atoms: N_12  and  S_13 
REMARK    5  A    between atoms: C_16  and  S_18 
REMARK    6  A    between atoms: S_18  and  N_21 
ROOT
HETATM    1  S   LIG     1    -127.312 -38.638  31.558  1.00  0.00     0.265 S 
HETATM    2  O   LIG     1    -128.591 -38.021  31.694  1.00  0.00    -0.200 OA
HETATM    3  O   LIG     1    -126.401 -37.587  31.879  1.00  0.00    -0.200 OA
ENDROOT
BRANCH   1   4
HETATM    4  C   LIG     1    -127.122 -39.831  32.799  1.00  0.00     0.121 A 
HETATM    5  C   LIG     1    -127.341 -39.734  34.163  1.00  0.00     0.035 A 
HETATM    6  C   LIG     1    -127.140 -40.941  34.797  1.00  0.00     0.034 A 
HETATM    7  C   LIG     1    -126.773 -41.918  33.894  1.00  0.00     0.116 A 
HETATM    8  S   LIG     1    -126.658 -41.381  32.250  1.00  0.00    -0.064 SA
BRANCH   7   9
HETATM    9  S   LIG     1    -126.519 -43.571  34.353  1.00  0.00     0.245 S 
HETATM   10  O   LIG     1    -127.653 -43.875  35.182  1.00  0.00    -0.206 OA
HETATM   11  O   LIG     1    -125.317 -43.647  35.104  1.00  0.00    -0.206 OA
BRANCH   9  12
HETATM   12  N   LIG     1    -126.466 -44.356  32.986  1.00  0.00    -0.225 NA
HETATM   13  H   LIG     1    -127.247 -45.130  32.978  1.00  0.00     0.136 HD
HETATM   14  H   LIG     1    -125.480 -44.830  32.874  1.00  0.00     0.136 HD
ENDBRANCH   9  12
ENDBRANCH   7   9
ENDBRANCH   1   4
BRANCH   1  15
HETATM   15  N   LIG     1    -127.061 -39.216  30.210  1.00  0.00    -0.311 N 
HETATM   16  H   LIG     1    -127.780 -39.815  29.631  1.00  0.00     0.172 HD
BRANCH  15  17
HETATM   17  C   LIG     1    -125.839 -38.724  29.575  1.00  0.00     0.170 C 
BRANCH  17  18
HETATM   18  C   LIG     1    -124.736 -39.760  29.538  1.00  0.00    -0.040 A 
HETATM   19  C   LIG     1    -124.682 -40.747  28.539  1.00  0.00     0.009 A 
HETATM   20  C   LIG     1    -123.644 -41.680  28.542  1.00  0.00     0.007 A 
HETATM   21  C   LIG     1    -122.660 -41.637  29.542  1.00  0.00    -0.062 A 
HETATM   22  C   LIG     1    -121.512 -42.669  29.588  1.00  0.00     0.048 C 
HETATM   23  C   LIG     1    -122.720 -40.658  30.530  1.00  0.00     0.007 A 
HETATM   24  C   LIG     1    -123.752 -39.724  30.526  1.00  0.00     0.009 A 
ENDBRANCH  17  18
ENDBRANCH  15  17
ENDBRANCH   1  15
TORSDOF 6
