REMARK VINA RESULT:      -6.2      3.697      5.164
REMARK  6 active torsions:
REMARK  status: ('A' for Active; 'I' for Inactive)
REMARK    1  A    between atoms: C_1  and  S_13 
REMARK    2  A    between atoms: C_2  and  N_21 
REMARK    3  A    between atoms: C_2  and  C_3 
REMARK    4  A    between atoms: N_12  and  S_13 
REMARK    5  A    between atoms: C_16  and  S_18 
REMARK    6  A    between atoms: S_18  and  N_21 
ROOT
HETATM    1  S   LIG     1    -125.526 -38.982  33.142  1.00  0.00     0.265 S 
HETATM    2  O   LIG     1    -124.756 -38.256  34.097  1.00  0.00    -0.200 OA
HETATM    3  O   LIG     1    -126.387 -37.988  32.585  1.00  0.00    -0.200 OA
ENDROOT
BRANCH   1   4
HETATM    4  C   LIG     1    -124.493 -39.496  31.850  1.00  0.00     0.121 A 
HETATM    5  C   LIG     1    -123.131 -39.748  31.853  1.00  0.00     0.035 A 
HETATM    6  C   LIG     1    -122.698 -40.211  30.629  1.00  0.00     0.034 A 
HETATM    7  C   LIG     1    -123.745 -40.294  29.734  1.00  0.00     0.116 A 
HETATM    8  S   LIG     1    -125.282 -39.801  30.367  1.00  0.00    -0.064 SA
BRANCH   7   9
HETATM    9  S   LIG     1    -123.556 -40.913  28.125  1.00  0.00     0.245 S 
HETATM   10  O   LIG     1    -123.870 -39.790  27.286  1.00  0.00    -0.206 OA
HETATM   11  O   LIG     1    -124.498 -41.957  27.934  1.00  0.00    -0.206 OA
BRANCH   9  12
HETATM   12  N   LIG     1    -122.055 -41.391  28.061  1.00  0.00    -0.225 NA
HETATM   13  H   LIG     1    -121.440 -40.606  27.596  1.00  0.00     0.136 HD
HETATM   14  H   LIG     1    -121.988 -42.311  27.461  1.00  0.00     0.136 HD
ENDBRANCH   9  12
ENDBRANCH   7   9
ENDBRANCH   1   4
BRANCH   1  15
HETATM   15  N   LIG     1    -126.280 -40.128  33.719  1.00  0.00    -0.311 N 
HETATM   16  H   LIG     1    -127.376 -40.218  33.749  1.00  0.00     0.172 HD
BRANCH  15  17
HETATM   17  C   LIG     1    -125.441 -41.280  34.046  1.00  0.00     0.170 C 
BRANCH  17  18
HETATM   18  C   LIG     1    -126.154 -42.602  33.853  1.00  0.00    -0.040 A 
HETATM   19  C   LIG     1    -127.059 -42.805  32.797  1.00  0.00     0.009 A 
HETATM   20  C   LIG     1    -127.691 -44.042  32.654  1.00  0.00     0.007 A 
HETATM   21  C   LIG     1    -127.428 -45.077  33.566  1.00  0.00    -0.062 A 
HETATM   22  C   LIG     1    -128.128 -46.449  33.451  1.00  0.00     0.048 C 
HETATM   23  C   LIG     1    -126.532 -44.868  34.610  1.00  0.00     0.007 A 
HETATM   24  C   LIG     1    -125.898 -43.637  34.751  1.00  0.00     0.009 A 
ENDBRANCH  17  18
ENDBRANCH  15  17
ENDBRANCH   1  15
TORSDOF 6
