REMARK VINA RESULT:      -6.1      4.352      8.090
REMARK  6 active torsions:
REMARK  status: ('A' for Active; 'I' for Inactive)
REMARK    1  A    between atoms: C_1  and  S_13 
REMARK    2  A    between atoms: C_2  and  N_21 
REMARK    3  A    between atoms: C_2  and  C_3 
REMARK    4  A    between atoms: N_12  and  S_13 
REMARK    5  A    between atoms: C_16  and  S_18 
REMARK    6  A    between atoms: S_18  and  N_21 
ROOT
HETATM    1  S   LIG     1    -126.017 -42.220  32.566  1.00  0.00     0.265 S 
HETATM    2  O   LIG     1    -125.329 -42.413  31.333  1.00  0.00    -0.200 OA
HETATM    3  O   LIG     1    -127.308 -42.775  32.317  1.00  0.00    -0.200 OA
ENDROOT
BRANCH   1   4
HETATM    4  C   LIG     1    -125.294 -43.218  33.783  1.00  0.00     0.121 A 
HETATM    5  C   LIG     1    -123.967 -43.332  34.162  1.00  0.00     0.035 A 
HETATM    6  C   LIG     1    -123.815 -44.192  35.229  1.00  0.00     0.034 A 
HETATM    7  C   LIG     1    -125.033 -44.706  35.626  1.00  0.00     0.116 A 
HETATM    8  S   LIG     1    -126.390 -44.155  34.699  1.00  0.00    -0.064 SA
BRANCH   7   9
HETATM    9  S   LIG     1    -125.204 -45.762  36.990  1.00  0.00     0.245 S 
HETATM   10  O   LIG     1    -126.231 -46.683  36.586  1.00  0.00    -0.206 OA
HETATM   11  O   LIG     1    -125.636 -44.991  38.101  1.00  0.00    -0.206 OA
BRANCH   9  12
HETATM   12  N   LIG     1    -123.775 -46.401  37.177  1.00  0.00    -0.225 NA
HETATM   13  H   LIG     1    -123.012 -45.609  37.138  1.00  0.00     0.136 HD
HETATM   14  H   LIG     1    -123.590 -47.127  36.371  1.00  0.00     0.136 HD
ENDBRANCH   9  12
ENDBRANCH   7   9
ENDBRANCH   1   4
BRANCH   1  15
HETATM   15  N   LIG     1    -126.084 -40.799  33.004  1.00  0.00    -0.311 N 
HETATM   16  H   LIG     1    -125.266 -40.069  32.921  1.00  0.00     0.172 HD
BRANCH  15  17
HETATM   17  C   LIG     1    -127.433 -40.351  33.349  1.00  0.00     0.170 C 
BRANCH  17  18
HETATM   18  C   LIG     1    -127.629 -40.161  34.837  1.00  0.00    -0.040 A 
HETATM   19  C   LIG     1    -126.807 -39.300  35.586  1.00  0.00     0.009 A 
HETATM   20  C   LIG     1    -127.026 -39.152  36.957  1.00  0.00     0.007 A 
HETATM   21  C   LIG     1    -128.060 -39.864  37.587  1.00  0.00    -0.062 A 
HETATM   22  C   LIG     1    -128.313 -39.742  39.105  1.00  0.00     0.048 C 
HETATM   23  C   LIG     1    -128.868 -40.716  36.839  1.00  0.00     0.007 A 
HETATM   24  C   LIG     1    -128.653 -40.861  35.472  1.00  0.00     0.009 A 
ENDBRANCH  17  18
ENDBRANCH  15  17
ENDBRANCH   1  15
TORSDOF 6
