REMARK VINA RESULT:      -6.1      3.884      6.425
REMARK  6 active torsions:
REMARK  status: ('A' for Active; 'I' for Inactive)
REMARK    1  A    between atoms: C_1  and  S_13 
REMARK    2  A    between atoms: C_2  and  N_21 
REMARK    3  A    between atoms: C_2  and  C_3 
REMARK    4  A    between atoms: N_12  and  S_13 
REMARK    5  A    between atoms: C_16  and  S_18 
REMARK    6  A    between atoms: S_18  and  N_21 
ROOT
HETATM    1  S   LIG     1    -126.320 -40.103  34.294  1.00  0.00     0.265 S 
HETATM    2  O   LIG     1    -125.912 -41.468  34.339  1.00  0.00    -0.200 OA
HETATM    3  O   LIG     1    -125.247 -39.414  34.936  1.00  0.00    -0.200 OA
ENDROOT
BRANCH   1   4
HETATM    4  C   LIG     1    -126.317 -39.563  32.648  1.00  0.00     0.121 A 
HETATM    5  C   LIG     1    -125.474 -39.905  31.604  1.00  0.00     0.035 A 
HETATM    6  C   LIG     1    -125.856 -39.304  30.424  1.00  0.00     0.034 A 
HETATM    7  C   LIG     1    -126.977 -38.520  30.610  1.00  0.00     0.116 A 
HETATM    8  S   LIG     1    -127.586 -38.497  32.233  1.00  0.00    -0.064 SA
BRANCH   7   9
HETATM    9  S   LIG     1    -127.762 -37.685  29.309  1.00  0.00     0.245 S 
HETATM   10  O   LIG     1    -127.819 -36.322  29.761  1.00  0.00    -0.206 OA
HETATM   11  O   LIG     1    -129.069 -38.216  29.160  1.00  0.00    -0.206 OA
BRANCH   9  12
HETATM   12  N   LIG     1    -126.828 -37.932  28.062  1.00  0.00    -0.225 NA
HETATM   13  H   LIG     1    -127.292 -37.494  27.165  1.00  0.00     0.136 HD
HETATM   14  H   LIG     1    -126.693 -39.014  27.914  1.00  0.00     0.136 HD
ENDBRANCH   9  12
ENDBRANCH   7   9
ENDBRANCH   1   4
BRANCH   1  15
HETATM   15  N   LIG     1    -127.632 -39.843  34.945  1.00  0.00    -0.311 N 
HETATM   16  H   LIG     1    -128.338 -39.049  34.660  1.00  0.00     0.172 HD
BRANCH  15  17
HETATM   17  C   LIG     1    -128.050 -40.896  35.871  1.00  0.00     0.170 C 
BRANCH  17  18
HETATM   18  C   LIG     1    -128.749 -40.356  37.100  1.00  0.00    -0.040 A 
HETATM   19  C   LIG     1    -130.133 -40.512  37.292  1.00  0.00     0.009 A 
HETATM   20  C   LIG     1    -130.735 -40.001  38.443  1.00  0.00     0.007 A 
HETATM   21  C   LIG     1    -129.962 -39.330  39.404  1.00  0.00    -0.062 A 
HETATM   22  C   LIG     1    -130.601 -38.733  40.677  1.00  0.00     0.048 C 
HETATM   23  C   LIG     1    -128.593 -39.179  39.207  1.00  0.00     0.007 A 
HETATM   24  C   LIG     1    -127.991 -39.691  38.062  1.00  0.00     0.009 A 
ENDBRANCH  17  18
ENDBRANCH  15  17
ENDBRANCH   1  15
TORSDOF 6
