REMARK VINA RESULT:      -6.8      4.209      6.335
REMARK  6 active torsions:
REMARK  status: ('A' for Active; 'I' for Inactive)
REMARK    1  A    between atoms: C_1  and  S_13 
REMARK    2  A    between atoms: C_2  and  N_21 
REMARK    3  A    between atoms: C_2  and  C_3 
REMARK    4  A    between atoms: N_12  and  S_13 
REMARK    5  A    between atoms: C_16  and  S_18 
REMARK    6  A    between atoms: S_18  and  N_21 
ROOT
HETATM    1  S   LIG     1    -126.298 -38.596  32.565  1.00  0.00     0.265 S 
HETATM    2  O   LIG     1    -125.264 -38.199  33.462  1.00  0.00    -0.200 OA
HETATM    3  O   LIG     1    -126.870 -37.357  32.147  1.00  0.00    -0.200 OA
ENDROOT
BRANCH   1   4
HETATM    4  C   LIG     1    -125.586 -39.295  31.149  1.00  0.00     0.121 A 
HETATM    5  C   LIG     1    -125.901 -39.108  29.813  1.00  0.00     0.035 A 
HETATM    6  C   LIG     1    -125.042 -39.798  28.986  1.00  0.00     0.034 A 
HETATM    7  C   LIG     1    -124.101 -40.492  29.720  1.00  0.00     0.116 A 
HETATM    8  S   LIG     1    -124.250 -40.320  31.439  1.00  0.00    -0.064 SA
BRANCH   7   9
HETATM    9  S   LIG     1    -122.824 -41.404  28.983  1.00  0.00     0.245 S 
HETATM   10  O   LIG     1    -123.317 -42.754  28.990  1.00  0.00    -0.206 OA
HETATM   11  O   LIG     1    -121.667 -41.291  29.797  1.00  0.00    -0.206 OA
BRANCH   9  12
HETATM   12  N   LIG     1    -122.659 -40.764  27.551  1.00  0.00    -0.225 NA
HETATM   13  H   LIG     1    -122.867 -41.525  26.784  1.00  0.00     0.136 HD
HETATM   14  H   LIG     1    -121.630 -40.395  27.431  1.00  0.00     0.136 HD
ENDBRANCH   9  12
ENDBRANCH   7   9
ENDBRANCH   1   4
BRANCH   1  15
HETATM   15  N   LIG     1    -127.304 -39.511  33.170  1.00  0.00    -0.311 N 
HETATM   16  H   LIG     1    -128.323 -39.676  32.791  1.00  0.00     0.172 HD
BRANCH  15  17
HETATM   17  C   LIG     1    -126.756 -40.389  34.203  1.00  0.00     0.170 C 
BRANCH  17  18
HETATM   18  C   LIG     1    -127.379 -40.160  35.563  1.00  0.00    -0.040 A 
HETATM   19  C   LIG     1    -128.529 -40.856  35.976  1.00  0.00     0.009 A 
HETATM   20  C   LIG     1    -129.068 -40.616  37.241  1.00  0.00     0.007 A 
HETATM   21  C   LIG     1    -128.467 -39.678  38.096  1.00  0.00    -0.062 A 
HETATM   22  C   LIG     1    -129.052 -39.371  39.492  1.00  0.00     0.048 C 
HETATM   23  C   LIG     1    -127.330 -38.991  37.680  1.00  0.00     0.007 A 
HETATM   24  C   LIG     1    -126.790 -39.233  36.421  1.00  0.00     0.009 A 
ENDBRANCH  17  18
ENDBRANCH  15  17
ENDBRANCH   1  15
TORSDOF 6
